networks/opendss/CKT_1963_01510.dss
! OpenDSS script generated from multiconductor network
Clear

New Circuit.mc_network basekv=12.0 pu=1.000000 angle=0.00 frequency=60.0 phases=3 Mvasc3=143993 Mvasc1=47997.6
~ bus1=-8888882180115.1.2.3

! Line codes
New LineCode.653_ACSR_3PH_653_ACSR_N_12KV_4 nphases=4 units=km Rmatrix=[ 0.001161 | 0 0.001161 | 0 0 0.001161 | 0 0 0 0.001161 ] Xmatrix=[ 0.003947 | 0 0.003947 | 0 0 0.003947 | 0 0 0 0.003947 ] Cmatrix=[ 0 | 0 0 | 0 0 0 | 0 0 0 0 ]
New LineCode.4/0_CU_3PH_12KV_3 nphases=3 units=km Rmatrix=[ 0.02323 | 0 0.02323 | 0 0 0.02323 ] Xmatrix=[ 0.054689 | 0 0.054689 | 0 0 0.054689 ] Cmatrix=[ 0 | 0 0 | 0 0 0 ]
New LineCode.350_EPR_3PH_12KV_3 nphases=3 units=km Rmatrix=[ 1e-05 | 0 1e-05 | 0 0 1e-05 ] Xmatrix=[ 1e-05 | 0 1e-05 | 0 0 1e-05 ] Cmatrix=[ 0 | 0 0 | 0 0 0 ]
New LineCode.750_AL_1PH_12KV_1 nphases=1 units=km Rmatrix=[ 0.016357 ] Xmatrix=[ 0.020089 ] Cmatrix=[ 0 ]
New LineCode.750_CLP_3PH_12KV_3 nphases=3 units=km Rmatrix=[ 0.006561 | 0 0.006561 | 0 0 0.006561 ] Xmatrix=[ 0.008058 | 0 0.008058 | 0 0 0.008058 ] Cmatrix=[ 0 | 0 0 | 0 0 0 ]
New LineCode.1000_JCN_3PH_12KV_3 nphases=3 units=km Rmatrix=[ 0.015466 | 0 0.015466 | 0 0 0.015466 ] Xmatrix=[ 0.02341 | 0 0.02341 | 0 0 0.02341 ] Cmatrix=[ 0 | 0 0 | 0 0 0 ]
New LineCode.1/0_CLP_3PH_12KV_3 nphases=3 units=km Rmatrix=[ 0.00279 | 0 0.00279 | 0 0 0.00279 ] Xmatrix=[ 0.000853 | 0 0.000853 | 0 0 0.000853 ] Cmatrix=[ 0 | 0 0 | 0 0 0 ]
New LineCode.2_CLP_1PH_12KV_1 nphases=1 units=km Rmatrix=[ 0.04281 ] Xmatrix=[ 0.009023 ] Cmatrix=[ 0 ]
New LineCode.2_CLP_3PH_12KV_3 nphases=3 units=km Rmatrix=[ 0.083962 | 0 0.083962 | 0 0 0.083962 ] Xmatrix=[ 0.017698 | 0 0.017698 | 0 0 0.017698 ] Cmatrix=[ 0 | 0 0 | 0 0 0 ]
New LineCode.653_ACSR_3PH_12KV_3 nphases=3 units=km Rmatrix=[ 0.000221 | 0 0.000221 | 0 0 0.000221 ] Xmatrix=[ 0.00086 | 0 0.00086 | 0 0 0.00086 ] Cmatrix=[ 0 | 0 0 | 0 0 0 ]
New LineCode.1/0_ACSR_2PH_12KV_2 nphases=2 units=km Rmatrix=[ 0.013221 | 0 0.013221 ] Xmatrix=[ 0.010527 | 0 0.010527 ] Cmatrix=[ 0 | 0 0 ]
New LineCode.4_ACSR_3PH_12KV_3 nphases=3 units=km Rmatrix=[ 0.032001 | 0 0.032001 | 0 0 0.032001 ] Xmatrix=[ 0.011742 | 0 0.011742 | 0 0 0.011742 ] Cmatrix=[ 0 | 0 0 | 0 0 0 ]
New LineCode.6_CU_3PH_12KV_3 nphases=3 units=km Rmatrix=[ 0.18541 | 0 0.18541 | 0 0 0.18541 ] Xmatrix=[ 0.06572 | 0 0.06572 | 0 0 0.06572 ] Cmatrix=[ 0 | 0 0 | 0 0 0 ]
New LineCode.4_ACSR_2PH_12KV_2 nphases=2 units=km Rmatrix=[ 0.070429 | 0 0.070429 ] Xmatrix=[ 0.025844 | 0 0.025844 ] Cmatrix=[ 0 | 0 0 ]
New LineCode.1/0_CLP_1PH_12KV_1 nphases=1 units=km Rmatrix=[ 0.064131 ] Xmatrix=[ 0.019601 ] Cmatrix=[ 0 ]
New LineCode.2_CLP_2PH_12KV_2 nphases=2 units=km Rmatrix=[ 0.097128 | 0 0.097128 ] Xmatrix=[ 0.020473 | 0 0.020473 ] Cmatrix=[ 0 | 0 0 ]
New LineCode.750_AL_3PH_12KV_3 nphases=3 units=km Rmatrix=[ 0.009326 | 0 0.009326 | 0 0 0.009326 ] Xmatrix=[ 0.011453 | 0 0.011453 | 0 0 0.011453 ] Cmatrix=[ 0 | 0 0 | 0 0 0 ]
New LineCode.2_AL_2PH_12KV_2 nphases=2 units=km Rmatrix=[ 0.054155 | 0 0.054155 ] Xmatrix=[ 0.011415 | 0 0.011415 ] Cmatrix=[ 0 | 0 0 ]
New LineCode.1/0_ACSR_3PH_12KV_3 nphases=3 units=km Rmatrix=[ 0.035372 | 0 0.035372 | 0 0 0.035372 ] Xmatrix=[ 0.028163 | 0 0.028163 | 0 0 0.028163 ] Cmatrix=[ 0 | 0 0 | 0 0 0 ]
New LineCode.1/0_JCN_3PH_12KV_3 nphases=3 units=km Rmatrix=[ 0.055315 | 0 0.055315 | 0 0 0.055315 ] Xmatrix=[ 0.016907 | 0 0.016907 | 0 0 0.016907 ] Cmatrix=[ 0 | 0 0 | 0 0 0 ]
New LineCode.750_JCN_3PH_12KV_3 nphases=3 units=km Rmatrix=[ 0.05023 | 0 0.05023 | 0 0 0.05023 ] Xmatrix=[ 0.061689 | 0 0.061689 | 0 0 0.061689 ] Cmatrix=[ 0 | 0 0 | 0 0 0 ]
New LineCode.2_AL_3PH_12KV_3 nphases=3 units=km Rmatrix=[ 0.053633 | 0 0.053633 | 0 0 0.053633 ] Xmatrix=[ 0.011305 | 0 0.011305 | 0 0 0.011305 ] Cmatrix=[ 0 | 0 0 | 0 0 0 ]
New LineCode.336_ACSR_3PH_12KV_3 nphases=3 units=km Rmatrix=[ 0.004786 | 0 0.004786 | 0 0 0.004786 ] Xmatrix=[ 0.010718 | 0 0.010718 | 0 0 0.010718 ] Cmatrix=[ 0 | 0 0 | 0 0 0 ]
New LineCode.1/0_CLP_2PH_12KV_2 nphases=2 units=km Rmatrix=[ 0.054817 | 0 0.054817 ] Xmatrix=[ 0.016755 | 0 0.016755 ] Cmatrix=[ 0 | 0 0 ]
New LineCode.2/0_CU_3PH_12KV_3 nphases=3 units=km Rmatrix=[ 0.040772 | 0 0.040772 | 0 0 0.040772 ] Xmatrix=[ 0.062885 | 0 0.062885 | 0 0 0.062885 ] Cmatrix=[ 0 | 0 0 | 0 0 0 ]
New LineCode.4/0_CU_3PH_4/0_CU_N_12KV_4 nphases=4 units=km Rmatrix=[ 0.066658 | 0 0.066658 | 0 0 0.066658 | 0 0 0 0.066658 ] Xmatrix=[ 0.140173 | 0 0.140173 | 0 0 0.140173 | 0 0 0 0.140173 ] Cmatrix=[ 0 | 0 0 | 0 0 0 | 0 0 0 0 ]
New LineCode.6_CU_2PH_12KV_2 nphases=2 units=km Rmatrix=[ 0.062377 | 0 0.062377 ] Xmatrix=[ 0.02211 | 0 0.02211 ] Cmatrix=[ 0 | 0 0 ]
New LineCode.2_ACSR_3PH_12KV_3 nphases=3 units=km Rmatrix=[ 0.009688 | 0 0.009688 | 0 0 0.009688 ] Xmatrix=[ 0.005209 | 0 0.005209 | 0 0 0.005209 ] Cmatrix=[ 0 | 0 0 | 0 0 0 ]
New LineCode.2_ACSR_2PH_12KV_2 nphases=2 units=km Rmatrix=[ 0.056922 | 0 0.056922 ] Xmatrix=[ 0.030602 | 0 0.030602 ] Cmatrix=[ 0 | 0 0 ]

! Lines
New Line.ND41849144$1669165E phases=4 Bus1=41849144.0.1.2.3 Bus2=41769586.0.1.2.3 LineCode=653_ACSR_3PH_653_ACSR_N_12KV_4 Length=0.079575 units=km
New Line.RCS0482$ND41931860 phases=3 Bus1=41848059.1.2.3 Bus2=41931860.1.2.3 LineCode=4/0_CU_3PH_12KV_3 Length=0.086193 units=km
New Line.ND11934374$555E phases=3 Bus1=41814643.1.2.3 Bus2=-77777741814643.1.2.3 LineCode=350_EPR_3PH_12KV_3 Length=0.004011 units=km
New Line.ND41932082$PS0316 phases=4 Bus1=41847910.0.1.2.3 Bus2=41932082.0.1.2.3 LineCode=653_ACSR_3PH_653_ACSR_N_12KV_4 Length=0.21056 units=km
New Line.1019359E$ND41932082 phases=4 Bus1=41932082.0.1.2.3 Bus2=41848858.0.1.2.3 LineCode=653_ACSR_3PH_653_ACSR_N_12KV_4 Length=0.058282 units=km
New Line.1019359E$ND41931155 phases=4 Bus1=41848857.0.1.2.3 Bus2=41931155.0.1.2.3 LineCode=653_ACSR_3PH_653_ACSR_N_12KV_4 Length=0.618874 units=km
New Line.B5010253-2$9367E phases=1 Bus1=41814838.2 Bus2=41769858.2 LineCode=750_AL_1PH_12KV_1 Length=0.145188 units=km
New Line.B5057347-1$9368E phases=1 Bus1=41769617.2 Bus2=41769921.2 LineCode=750_AL_1PH_12KV_1 Length=0.075001 units=km
New Line.ND41931348$1354590EI phases=4 Bus1=41931348.0.1.2.3 Bus2=240335373.0.1.2.3 LineCode=653_ACSR_3PH_653_ACSR_N_12KV_4 Length=0.508818 units=km
New Line.B5010253-1$B5010254-2 phases=1 Bus1=41769849.2 Bus2=41769786.2 LineCode=750_AL_1PH_12KV_1 Length=0.079123 units=km
New Line.153E$211823711 phases=1 Bus1=41770062.3 Bus2=211823713.3 LineCode=750_AL_1PH_12KV_1 Length=0.131058 units=km
New Line.B5057347-2$B5057348-1 phases=1 Bus1=41769930.2 Bus2=41769993.2 LineCode=750_AL_1PH_12KV_1 Length=0.053037 units=km
New Line.9153E$B5010133-1 phases=1 Bus1=41770075.2 Bus2=41770523.2 LineCode=750_AL_1PH_12KV_1 Length=0.099875 units=km
New Line.1354590EI$ND41931349 phases=4 Bus1=240335374.0.1.2.3 Bus2=41931349.0.1.2.3 LineCode=653_ACSR_3PH_653_ACSR_N_12KV_4 Length=0.207179 units=km
New Line.B5010254-1$B5010255-2 phases=1 Bus1=41769777.2 Bus2=41769642.2 LineCode=750_AL_1PH_12KV_1 Length=0.0412 units=km
New Line.P5010137-2$211823711 phases=1 Bus1=211823714.3 Bus2=41770244.3 LineCode=750_AL_1PH_12KV_1 Length=0.001134 units=km
New Line.B5057348-2$B5057349-1 phases=1 Bus1=41770002.2 Bus2=41769705.2 LineCode=750_AL_1PH_12KV_1 Length=0.055664 units=km
New Line.B5010133-2$B5010134-1 phases=1 Bus1=41770532.2 Bus2=41770451.2 LineCode=750_AL_1PH_12KV_1 Length=0.10025 units=km
New Line.926E$GS1121-1 phases=3 Bus1=41770664.1.2.3 Bus2=41770708.1.2.3 LineCode=750_CLP_3PH_12KV_3 Length=0.04127 units=km
New Line.1669165E$GS0661-4 phases=3 Bus1=41769587.1.2.3 Bus2=165358866.1.2.3 LineCode=1000_JCN_3PH_12KV_3 Length=0.111521 units=km
New Line.211823684$P5010137-1 phases=1 Bus1=41770235.3 Bus2=211823687.3 LineCode=750_AL_1PH_12KV_1 Length=0.088477 units=km
New Line.B5010135-1$B5010134-2 phases=1 Bus1=41770460.2 Bus2=41770595.2 LineCode=750_AL_1PH_12KV_1 Length=0.114128 units=km
New Line.P5010136-2$211823684 phases=1 Bus1=211823686.3 Bus2=41770316.3 LineCode=750_AL_1PH_12KV_1 Length=0.076548 units=km
New Line.GS1132-1$ND41931985 phases=3 Bus1=41846403.1.2.3 Bus2=41931985.1.2.3 LineCode=1/0_CLP_3PH_12KV_3 Length=0.019153 units=km
New Line.ND237365981$GS1133-1 phases=3 Bus1=237365981.1.2.3 Bus2=148882501.1.2.3 LineCode=750_CLP_3PH_12KV_3 Length=0.058413 units=km
New Line.ND41931985$V5057790 phases=3 Bus1=41931985.1.2.3 Bus2=154336007.1.2.3 LineCode=1/0_CLP_3PH_12KV_3 Length=0.003974 units=km
New Line.B5161954-1$B5161953-2 phases=1 Bus1=41845099.1 Bus2=41845036.1 LineCode=2_CLP_1PH_12KV_1 Length=0.030396 units=km
New Line.ND174837759$GS0661-5 phases=3 Bus1=165358875.1.2.3 Bus2=174837759.1.2.3 LineCode=1000_JCN_3PH_12KV_3 Length=0.062983 units=km
New Line.BS1078-T$GS0661-3 phases=3 Bus1=165358857.1.2.3 Bus2=196971204.1.2.3 LineCode=2_CLP_3PH_12KV_3 Length=0.095138 units=km
New Line.B5010135-2$B5010250-2 phases=1 Bus1=41770604.2 Bus2=41770172.2 LineCode=750_AL_1PH_12KV_1 Length=0.118498 units=km
New Line.GS0660-1$ND174837759 phases=3 Bus1=174837759.1.2.3 Bus2=151617849.1.2.3 LineCode=1000_JCN_3PH_12KV_3 Length=0.298874 units=km
New Line.J976-1P$ND174837759 phases=3 Bus1=174837759.1.2.3 Bus2=174837623.1.2.3 LineCode=2_CLP_3PH_12KV_3 Length=0.018952 units=km
New Line.PS0316$292E phases=4 Bus1=41769556.0.1.2.3 Bus2=41847911.0.1.2.3 LineCode=653_ACSR_3PH_653_ACSR_N_12KV_4 Length=0.197287 units=km
New Line.ND41932082$PS0326 phases=3 Bus1=41932082.1.2.3 Bus2=56082140.1.2.3 LineCode=653_ACSR_3PH_12KV_3 Length=0.100615 units=km
New Line.ND41931155$9367E phases=4 Bus1=41931155.0.1.2.3 Bus2=41814837.0.1.2.3 LineCode=653_ACSR_3PH_653_ACSR_N_12KV_4 Length=0.130431 units=km
New Line.ND41931155$ND41931481 phases=4 Bus1=41931155.0.1.2.3 Bus2=41931481.0.1.2.3 LineCode=653_ACSR_3PH_653_ACSR_N_12KV_4 Length=0.06738 units=km
New Line.ND41931481$9368E phases=4 Bus1=41931481.0.1.2.3 Bus2=41769616.0.1.2.3 LineCode=653_ACSR_3PH_653_ACSR_N_12KV_4 Length=0.136593 units=km
New Line.ND41931481$ND41847999 phases=4 Bus1=41931481.0.1.2.3 Bus2=41847999.0.1.2.3 LineCode=653_ACSR_3PH_653_ACSR_N_12KV_4 Length=0.266625 units=km
New Line.ND41847999$ND41931898 phases=4 Bus1=41847999.0.1.2.3 Bus2=41931898.0.1.2.3 LineCode=653_ACSR_3PH_653_ACSR_N_12KV_4 Length=0.088535 units=km
New Line.ND41931898$ND141736774 phases=4 Bus1=41931898.0.1.2.3 Bus2=141736774.0.1.2.3 LineCode=653_ACSR_3PH_653_ACSR_N_12KV_4 Length=0.004677 units=km
New Line.ND41931898$ND41931348 phases=4 Bus1=41931898.0.1.2.3 Bus2=41931348.0.1.2.3 LineCode=653_ACSR_3PH_653_ACSR_N_12KV_4 Length=0.508818 units=km
New Line.ND141736774$153E phases=4 Bus1=141736774.0.1.2.3 Bus2=41770061.0.1.2.3 LineCode=653_ACSR_3PH_653_ACSR_N_12KV_4 Length=0.009231 units=km
New Line.9153E$ND141736774 phases=4 Bus1=141736774.0.1.2.3 Bus2=41770074.0.1.2.3 LineCode=653_ACSR_3PH_653_ACSR_N_12KV_4 Length=0.007365 units=km
New Line.ND41931349$926E phases=4 Bus1=41931349.0.1.2.3 Bus2=41770663.0.1.2.3 LineCode=653_ACSR_3PH_653_ACSR_N_12KV_4 Length=0.006484 units=km
New Line.ND41931349$ND41931806 phases=4 Bus1=41931349.0.1.2.3 Bus2=41931806.0.1.2.3 LineCode=653_ACSR_3PH_653_ACSR_N_12KV_4 Length=0.508424 units=km
New Line.2332950ET$ND41931806 phases=2 Bus1=41931806.2.3 Bus2=41848958.2.3 LineCode=1/0_ACSR_2PH_12KV_2 Length=0.010501 units=km
New Line.ND41931806$ND41849144 phases=4 Bus1=41931806.0.1.2.3 Bus2=41849144.0.1.2.3 LineCode=653_ACSR_3PH_653_ACSR_N_12KV_4 Length=0.09761 units=km
New Line.2332950ET$4015927E phases=2 Bus1=41848959.2.3 Bus2=41814086.2.3 LineCode=1/0_ACSR_2PH_12KV_2 Length=0.069252 units=km
New Line.987232E$ND41933073 phases=3 Bus1=41812703.1.2.3 Bus2=41933073.1.2.3 LineCode=4_ACSR_3PH_12KV_3 Length=0.053717 units=km
New Line.1339642E$ND218893433 phases=2 Bus1=218893433.1.3 Bus2=218892744.1.3 LineCode=1/0_ACSR_2PH_12KV_2 Length=0.059899 units=km
New Line.ND218893433$1071810E phases=2 Bus1=218893433.1.3 Bus2=218892840.1.3 LineCode=1/0_ACSR_2PH_12KV_2 Length=0.034653 units=km
New Line.1071828E$1071829E phases=2 Bus1=218892878.1.3 Bus2=218892916.1.3 LineCode=1/0_ACSR_2PH_12KV_2 Length=0.035683 units=km
New Line.ND41933073$4604759E phases=3 Bus1=41933073.1.2.3 Bus2=41812728.1.2.3 LineCode=6_CU_3PH_12KV_3 Length=0.111478 units=km
New Line.965500E$965551E phases=2 Bus1=41846068.2.3 Bus2=41846043.2.3 LineCode=4_ACSR_2PH_12KV_2 Length=0.045693 units=km
New Line.P5010251-2$P5010136-1 phases=1 Bus1=41770307.3 Bus2=41770388.3 LineCode=750_AL_1PH_12KV_1 Length=0.086784 units=km
New Line.1957115E$GS0661-2 phases=3 Bus1=165358848.1.2.3 Bus2=41811788.1.2.3 LineCode=1000_JCN_3PH_12KV_3 Length=0.101188 units=km
New Line.GS1130-1$GS0661-1 phases=3 Bus1=165358839.1.2.3 Bus2=173320438.1.2.3 LineCode=1000_JCN_3PH_12KV_3 Length=0.227504 units=km
New Line.ND41932893$BS1078-R phases=3 Bus1=196971213.1.2.3 Bus2=41932893.1.2.3 LineCode=2_CLP_3PH_12KV_3 Length=0.009083 units=km
New Line.ND41932893$P5057536-1 phases=3 Bus1=41932893.1.2.3 Bus2=153191552.1.2.3 LineCode=2_CLP_3PH_12KV_3 Length=0.136437 units=km
New Line.P5010251-1$B5010252-1 phases=1 Bus1=41770379.3 Bus2=41770091.3 LineCode=750_AL_1PH_12KV_1 Length=0.094016 units=km
New Line.ND41932893$V5009985 phases=3 Bus1=41932893.1.2.3 Bus2=41848954.1.2.3 LineCode=2_CLP_3PH_12KV_3 Length=0.006236 units=km
New Line.GS1132-4$1463462E phases=3 Bus1=41846419.1.2.3 Bus2=41846554.1.2.3 LineCode=2_CLP_3PH_12KV_3 Length=0.053269 units=km
New Line.B5193595-1$ND41931985 phases=1 Bus1=41931985.2 Bus2=41846820.2 LineCode=1/0_CLP_1PH_12KV_1 Length=0.09091 units=km
New Line.ND41931985$ND41931986 phases=3 Bus1=41931985.1.2.3 Bus2=41931986.1.2.3 LineCode=2_CLP_3PH_12KV_3 Length=0.012371 units=km
New Line.P5339087-1$P5339088-2 phases=1 Bus1=41845664.3 Bus2=41845601.3 LineCode=2_CLP_1PH_12KV_1 Length=0.050143 units=km
New Line.M5057779$ND41931986 phases=2 Bus1=41931986.2.3 Bus2=41846740.2.3 LineCode=2_CLP_2PH_12KV_2 Length=0.096996 units=km
New Line.ND41931986$B5056607-2 phases=2 Bus1=41931986.1.2 Bus2=41846757.1.2 LineCode=2_CLP_2PH_12KV_2 Length=0.097512 units=km
New Line.RCS0449$ND41931867 phases=3 Bus1=41931867.1.2.3 Bus2=41848284.1.2.3 LineCode=653_ACSR_3PH_12KV_3 Length=0.0322 units=km
New Line.610338E$P5347684-1 phases=3 Bus1=41814394.1.2.3 Bus2=200044610.1.2.3 LineCode=750_AL_3PH_12KV_3 Length=0.082841 units=km
New Line.J976-2P$ND41931530 phases=3 Bus1=174837647.1.2.3 Bus2=41931530.1.2.3 LineCode=2_CLP_3PH_12KV_3 Length=0.064841 units=km
New Line.ND41931530$ND155131325 phases=3 Bus1=41931530.1.2.3 Bus2=155131325.1.2.3 LineCode=2_CLP_3PH_12KV_3 Length=0.135611 units=km
New Line.ND41931530$ND158418622 phases=3 Bus1=41931530.1.2.3 Bus2=158418622.1.2.3 LineCode=2_CLP_3PH_12KV_3 Length=0.005153 units=km
New Line.GS1130-2$ND165469550 phases=3 Bus1=173320430.1.2.3 Bus2=165469550.1.2.3 LineCode=2_CLP_3PH_12KV_3 Length=0.195062 units=km
New Line.P5647839-1$J976-3P phases=3 Bus1=174837631.1.2.3 Bus2=174837784.1.2.3 LineCode=2_CLP_3PH_12KV_3 Length=0.014815 units=km
New Line.ND165469550$165469559 phases=3 Bus1=165469550.1.2.3 Bus2=165469561.1.2.3 LineCode=2_CLP_3PH_12KV_3 Length=0.03757 units=km
New Line.ND155131325$201450472 phases=3 Bus1=155131325.1.2.3 Bus2=201450474.1.2.3 LineCode=2_CLP_3PH_12KV_3 Length=0.15618 units=km
New Line.ND90895434$PH602E phases=3 Bus1=90895434.1.2.3 Bus2=90895428.1.2.3 LineCode=4_ACSR_3PH_12KV_3 Length=0.006297 units=km
New Line.B5009784-2$FD35796 phases=2 Bus1=41846714.1.3 Bus2=41846579.1.3 LineCode=2_AL_2PH_12KV_2 Length=0.049224 units=km
New Line.ND219021542$BF35261 phases=3 Bus1=219021542.1.2.3 Bus2=219021504.1.2.3 LineCode=1/0_ACSR_3PH_12KV_3 Length=0.004025 units=km
New Line.PH602E$90895608 phases=3 Bus1=90895446.1.2.3 Bus2=90895610.1.2.3 LineCode=2_CLP_3PH_12KV_3 Length=0.034881 units=km
New Line.881E$J976-4P phases=3 Bus1=174837639.1.2.3 Bus2=41812187.1.2.3 LineCode=2_CLP_3PH_12KV_3 Length=0.170953 units=km
New Line.ND158418622$P5057537-1 phases=3 Bus1=158418622.1.2.3 Bus2=41812203.1.2.3 LineCode=2_CLP_3PH_12KV_3 Length=0.007565 units=km
New Line.ND155131325$P5057541-1 phases=3 Bus1=155131325.1.2.3 Bus2=41812299.1.2.3 LineCode=2_CLP_3PH_12KV_3 Length=0.136914 units=km
New Line.B5057775-2$ND165469550 phases=2 Bus1=165469550.1.2 Bus2=41845350.1.2 LineCode=2_CLP_2PH_12KV_2 Length=0.003939 units=km
New Line.ND41932057$GS1130-3 phases=2 Bus1=173320446.1.2 Bus2=41932057.1.2 LineCode=2_CLP_2PH_12KV_2 Length=0.042848 units=km
New Line.205502333$ND41932057 phases=2 Bus1=41932057.1.2 Bus2=205502335.1.2 LineCode=2_CLP_2PH_12KV_2 Length=0.144174 units=km
New Line.ND41932057$B5057770-2 phases=2 Bus1=41932057.1.2 Bus2=41845230.1.2 LineCode=2_CLP_2PH_12KV_2 Length=0.151866 units=km
New Line.GS1130-4$GS1131-4 phases=3 Bus1=173320454.1.2.3 Bus2=41846203.1.2.3 LineCode=1000_JCN_3PH_12KV_3 Length=0.203396 units=km
New Line.ND41932535$ND41931742 phases=3 Bus1=41932535.1.2.3 Bus2=41931742.1.2.3 LineCode=4/0_CU_3PH_12KV_3 Length=0.080643 units=km
New Line.201450472$P5601525-1 phases=3 Bus1=201450475.1.2.3 Bus2=158418548.1.2.3 LineCode=2_CLP_3PH_12KV_3 Length=0.003731 units=km
New Line.P5397587-1$1064863E phases=3 Bus1=41814695.1.2.3 Bus2=151617747.1.2.3 LineCode=2_CLP_3PH_12KV_3 Length=0.036134 units=km
New Line.165469559$P5056603-1 phases=3 Bus1=165469562.1.2.3 Bus2=41845293.1.2.3 LineCode=2_CLP_3PH_12KV_3 Length=0.003996 units=km
New Line.ND41931742$ND41931248 phases=3 Bus1=41931742.1.2.3 Bus2=41931248.1.2.3 LineCode=4/0_CU_3PH_12KV_3 Length=0.308813 units=km
New Line.PME1321-1$205502333 phases=2 Bus1=205502336.1.2 Bus2=41845171.1.2 LineCode=2_CLP_2PH_12KV_2 Length=0.002285 units=km
New Line.90895608$P5528280-A phases=3 Bus1=90895611.1.2.3 Bus2=152693024.1.2.3 LineCode=2_CLP_3PH_12KV_3 Length=0.002206 units=km
New Line.FD08740$236441104 phases=3 Bus1=236441024.1.2.3 Bus2=236441106.1.2.3 LineCode=1/0_JCN_3PH_12KV_3 Length=0.078308 units=km
New Line.PS0375$ND240627902 phases=3 Bus1=41848403.1.2.3 Bus2=240627902.1.2.3 LineCode=653_ACSR_3PH_12KV_3 Length=0.062575 units=km
New Line.236441104$P5754084-1 phases=3 Bus1=236441107.1.2.3 Bus2=236441060.1.2.3 LineCode=1/0_JCN_3PH_12KV_3 Length=0.001524 units=km
New Line.90895637$P5528280-B phases=3 Bus1=152693042.1.2.3 Bus2=90895640.1.2.3 LineCode=2_CLP_3PH_12KV_3 Length=0.00274 units=km
New Line.205502306$PME1321-1 phases=1 Bus1=41845172.1 Bus2=205502309.1 LineCode=2_CLP_1PH_12KV_1 Length=0.056825 units=km
New Line.GS1131-3$GS1132-2 phases=3 Bus1=41846195.1.2.3 Bus2=41846395.1.2.3 LineCode=750_JCN_3PH_12KV_3 Length=0.121395 units=km
New Line.1029011E$41848220 phases=3 Bus1=41812601.1.2.3 Bus2=41848222.1.2.3 LineCode=2_AL_3PH_12KV_3 Length=0.048067 units=km
New Line.ND41932319$GS1131-5 phases=3 Bus1=41846211.1.2.3 Bus2=41932319.1.2.3 LineCode=2_CLP_3PH_12KV_3 Length=0.162578 units=km
New Line.1794837E$P5576077-1 phases=3 Bus1=104979801.1.2.3 Bus2=104979829.1.2.3 LineCode=2_CLP_3PH_12KV_3 Length=0.10013 units=km
New Line.ND41932319$PMS3454-1 phases=1 Bus1=41932319.3 Bus2=41845736.3 LineCode=2_CLP_1PH_12KV_1 Length=0.044139 units=km
New Line.B5056606-2$ND41932319 phases=2 Bus1=41932319.1.3 Bus2=41845795.1.3 LineCode=2_CLP_2PH_12KV_2 Length=0.069633 units=km
New Line.GS1131-2$ND41931631 phases=3 Bus1=41846187.1.2.3 Bus2=41931631.1.2.3 LineCode=1/0_CLP_3PH_12KV_3 Length=0.019338 units=km
New Line.41848220$P5397788-1 phases=3 Bus1=41848223.1.2.3 Bus2=41812617.1.2.3 LineCode=2_AL_3PH_12KV_3 Length=0.00335 units=km
New Line.PH013E$ND99950907 phases=3 Bus1=99950907.1.2.3 Bus2=99950884.1.2.3 LineCode=336_ACSR_3PH_12KV_3 Length=0.004041 units=km
New Line.90895664$90895637 phases=3 Bus1=90895639.1.2.3 Bus2=90895666.1.2.3 LineCode=2_CLP_3PH_12KV_3 Length=0.118432 units=km
New Line.PH013E$190593495 phases=3 Bus1=99950885.1.2.3 Bus2=190593497.1.2.3 LineCode=1/0_CLP_3PH_12KV_3 Length=0.027482 units=km
New Line.90895664$P5528281-1 phases=3 Bus1=90895667.1.2.3 Bus2=90895464.1.2.3 LineCode=2_CLP_3PH_12KV_3 Length=0.002956 units=km
New Line.190593495$P5555300-1 phases=3 Bus1=190593498.1.2.3 Bus2=152156984.1.2.3 LineCode=1/0_CLP_3PH_12KV_3 Length=0.003276 units=km
New Line.B5161954-2$205502306 phases=1 Bus1=205502308.1 Bus2=41845108.1 LineCode=2_CLP_1PH_12KV_1 Length=0.038167 units=km
New Line.ND41931631$B5057778-2 phases=2 Bus1=41931631.2.3 Bus2=41845867.2.3 LineCode=1/0_CLP_2PH_12KV_2 Length=0.077928 units=km
New Line.965499E$ND41931631 phases=2 Bus1=41931631.2.3 Bus2=41846140.2.3 LineCode=2_AL_2PH_12KV_2 Length=0.048341 units=km
New Line.ND41931631$ND41931632 phases=2 Bus1=41931631.2.3 Bus2=41931632.2.3 LineCode=2_AL_2PH_12KV_2 Length=0.063523 units=km
New Line.ND41931300$PS0099 phases=3 Bus1=41931300.1.2.3 Bus2=27033099.1.2.3 LineCode=2/0_CU_3PH_12KV_3 Length=0.082363 units=km
New Line.P5339087-2$PMS3454-1 phases=1 Bus1=41845737.3 Bus2=41845673.3 LineCode=2_CLP_1PH_12KV_1 Length=0.019565 units=km
New Line.ND41931632$965565E phases=2 Bus1=41931632.2.3 Bus2=41846127.2.3 LineCode=2_AL_2PH_12KV_2 Length=0.076907 units=km
New Line.GS1132-3$ND237365981 phases=3 Bus1=41846411.1.2.3 Bus2=237365981.1.2.3 LineCode=750_CLP_3PH_12KV_3 Length=0.218446 units=km
New Line.1957115E$RCS0482 phases=4 Bus1=41811787.0.1.2.3 Bus2=41848060.0.1.2.3 LineCode=4/0_CU_3PH_4/0_CU_N_12KV_4 Length=0.354224 units=km
New Line.965565E$965566E phases=2 Bus1=41846126.2.3 Bus2=41846118.2.3 LineCode=4_ACSR_2PH_12KV_2 Length=0.031985 units=km
New Line.PS0124$ND41932162 phases=3 Bus1=41848147.1.2.3 Bus2=41932162.1.2.3 LineCode=653_ACSR_3PH_12KV_3 Length=0.054509 units=km
New Line.1071827E$1515959E phases=2 Bus1=218893329.1.3 Bus2=218892667.1.3 LineCode=1/0_ACSR_2PH_12KV_2 Length=0.027248 units=km
New Line.1339642E$1339643E phases=2 Bus1=218892744.1.3 Bus2=218892756.1.3 LineCode=1/0_ACSR_2PH_12KV_2 Length=0.048449 units=km
New Line.1071829E$358446E phases=2 Bus1=218892916.1.3 Bus2=218892954.1.3 LineCode=1/0_ACSR_2PH_12KV_2 Length=0.045498 units=km
New Line.4604759E$2026903E_1 phases=3 Bus1=41812728.1.2.3 Bus2=240388691.1.2.3 LineCode=6_CU_3PH_12KV_3 Length=0.124839 units=km
New Line.ND41932162$610338E phases=3 Bus1=41932162.1.2.3 Bus2=41814393.1.2.3 LineCode=653_ACSR_3PH_12KV_3 Length=0.118234 units=km
New Line.965551E$965556E phases=2 Bus1=41846043.2.3 Bus2=41846018.2.3 LineCode=4_ACSR_2PH_12KV_2 Length=0.208691 units=km
New Line.965566E$965568E phases=2 Bus1=41846118.2.3 Bus2=41846093.2.3 LineCode=4_ACSR_2PH_12KV_2 Length=0.121876 units=km
New Line.ND41932162$ND41931867 phases=3 Bus1=41932162.1.2.3 Bus2=41931867.1.2.3 LineCode=653_ACSR_3PH_12KV_3 Length=0.12921 units=km
New Line.358446E$569659E phases=2 Bus1=218892954.1.3 Bus2=218892992.1.3 LineCode=1/0_ACSR_2PH_12KV_2 Length=0.043672 units=km
New Line.1463462E$2133098E phases=3 Bus1=41846553.1.2.3 Bus2=41846655.1.2.3 LineCode=4_ACSR_3PH_12KV_3 Length=0.027858 units=km
New Line.965556E$ND41931672 phases=2 Bus1=41846018.2.3 Bus2=41931672.2.3 LineCode=4_ACSR_2PH_12KV_2 Length=0.101657 units=km
New Line.ND41931867$ND41931868 phases=3 Bus1=41931867.1.2.3 Bus2=41931868.1.2.3 LineCode=653_ACSR_3PH_12KV_3 Length=0.167809 units=km
New Line.569659E$ND218892582 phases=2 Bus1=218892992.1.3 Bus2=218892582.1.3 LineCode=1/0_ACSR_2PH_12KV_2 Length=0.04844 units=km
New Line.ND41931860$4754915E phases=3 Bus1=41931860.1.2.3 Bus2=196224515.1.2.3 LineCode=4/0_CU_3PH_12KV_3 Length=0.153585 units=km
New Line.ND41931860$BF34240 phases=2 Bus1=41931860.1.2 Bus2=41848803.1.2 LineCode=6_CU_2PH_12KV_2 Length=0.002751 units=km
New Line.2026903E_1$2026903E phases=3 Bus1=240388690.1.2.3 Bus2=41812753.1.2.3 LineCode=6_CU_3PH_12KV_3 Length=0.010071 units=km
New Line.ND41931672$1377844E phases=2 Bus1=41931672.2.3 Bus2=41845943.2.3 LineCode=4_ACSR_2PH_12KV_2 Length=0.124111 units=km
New Line.ND41931672$965561E phases=2 Bus1=41931672.2.3 Bus2=41845993.2.3 LineCode=4_ACSR_2PH_12KV_2 Length=0.063288 units=km
New Line.432247E$ND41931868 phases=3 Bus1=41931868.1.2.3 Bus2=41848432.1.2.3 LineCode=4_ACSR_3PH_12KV_3 Length=0.022301 units=km
New Line.2133098E$ND41931210 phases=3 Bus1=41846655.1.2.3 Bus2=41931210.1.2.3 LineCode=4_ACSR_3PH_12KV_3 Length=0.015089 units=km
New Line.ND41931868$ND41932973 phases=3 Bus1=41931868.1.2.3 Bus2=41932973.1.2.3 LineCode=653_ACSR_3PH_12KV_3 Length=0.054522 units=km
New Line.ND218892582$564115E phases=2 Bus1=218892582.1.3 Bus2=218892570.1.3 LineCode=1/0_ACSR_2PH_12KV_2 Length=0.04263 units=km
New Line.ND218892582$569658E phases=2 Bus1=218892582.1.3 Bus2=218893298.1.3 LineCode=1/0_ACSR_2PH_12KV_2 Length=0.001411 units=km
New Line.ND41931210$1580471E_ phases=3 Bus1=41931210.1.2.3 Bus2=242142476.1.2.3 LineCode=4_ACSR_3PH_12KV_3 Length=0.046409 units=km
New Line.2026903E$965684E phases=3 Bus1=41812753.1.2.3 Bus2=41812778.1.2.3 LineCode=6_CU_3PH_12KV_3 Length=0.042487 units=km
New Line.965561E$965563E phases=2 Bus1=41845993.2.3 Bus2=41845968.2.3 LineCode=4_ACSR_2PH_12KV_2 Length=0.126081 units=km
New Line.ND41931210$FD35796 phases=3 Bus1=41931210.1.2.3 Bus2=41846713.1.2.3 LineCode=4_ACSR_3PH_12KV_3 Length=0.003389 units=km
New Line.1669189E$ND41932973 phases=3 Bus1=41932973.1.2.3 Bus2=89811340.1.2.3 LineCode=4_ACSR_3PH_12KV_3 Length=0.020699 units=km
New Line.ND41932973$ND90895434 phases=3 Bus1=41932973.1.2.3 Bus2=90895434.1.2.3 LineCode=653_ACSR_3PH_12KV_3 Length=0.058058 units=km
New Line.965684E$965390E phases=3 Bus1=41812778.1.2.3 Bus2=41812803.1.2.3 LineCode=6_CU_3PH_12KV_3 Length=0.195692 units=km
New Line.432247E$1922030E phases=3 Bus1=41848433.1.2.3 Bus2=41847119.1.2.3 LineCode=4_ACSR_3PH_12KV_3 Length=0.088304 units=km
New Line.ND90895434$ND41849158 phases=3 Bus1=90895434.1.2.3 Bus2=41849158.1.2.3 LineCode=653_ACSR_3PH_12KV_3 Length=0.069936 units=km
New Line.ND41931718$1669189E phases=3 Bus1=89811340.1.2.3 Bus2=41931718.1.2.3 LineCode=4_ACSR_3PH_12KV_3 Length=0.027067 units=km
New Line.569658E$1387086E phases=2 Bus1=218893299.1.3 Bus2=218893059.1.3 LineCode=1/0_ACSR_2PH_12KV_2 Length=0.02073 units=km
New Line.ND41849158$ND219021542 phases=3 Bus1=41849158.1.2.3 Bus2=219021542.1.2.3 LineCode=653_ACSR_3PH_12KV_3 Length=0.090524 units=km
New Line.ND41931718$1339505E phases=3 Bus1=41931718.1.2.3 Bus2=41813355.1.2.3 LineCode=4_ACSR_3PH_12KV_3 Length=0.063555 units=km
New Line.ND41931718$1064863E phases=3 Bus1=41931718.1.2.3 Bus2=41814694.1.2.3 LineCode=2_ACSR_3PH_12KV_3 Length=0.090622 units=km
New Line.1580471E_$705936E phases=3 Bus1=242142477.1.2.3 Bus2=41846680.1.2.3 LineCode=4_ACSR_3PH_12KV_3 Length=0.02794 units=km
New Line.965390E$ND41933322 phases=3 Bus1=41812803.1.2.3 Bus2=41933322.1.2.3 LineCode=6_CU_3PH_12KV_3 Length=0.096906 units=km
New Line.1387086E$1387087E phases=2 Bus1=218893059.1.3 Bus2=218893097.1.3 LineCode=1/0_ACSR_2PH_12KV_2 Length=0.059908 units=km
New Line.1339505E$ND236441013 phases=3 Bus1=41813355.1.2.3 Bus2=236441013.1.2.3 LineCode=4_ACSR_3PH_12KV_3 Length=0.000335 units=km
New Line.ND239074284$ND219021542 phases=3 Bus1=219021542.1.2.3 Bus2=239074284.1.2.3 LineCode=653_ACSR_3PH_12KV_3 Length=0.057966 units=km
New Line.705936E$2216978E phases=3 Bus1=41846680.1.2.3 Bus2=41846705.1.2.3 LineCode=4_ACSR_3PH_12KV_3 Length=0.079304 units=km
New Line.ND41933322$4429599E phases=2 Bus1=41933322.1.2 Bus2=41847789.1.2 LineCode=6_CU_2PH_12KV_2 Length=0.090455 units=km
New Line.4754915E$ND41932535 phases=3 Bus1=196224515.1.2.3 Bus2=41932535.1.2.3 LineCode=4/0_CU_3PH_12KV_3 Length=0.046316 units=km
New Line.BF34240$668898E phases=2 Bus1=41848802.1.2 Bus2=41812542.1.2 LineCode=6_CU_2PH_12KV_2 Length=0.04517 units=km
New Line.ND41932535$BF34241 phases=2 Bus1=41932535.1.2 Bus2=41848177.1.2 LineCode=6_CU_2PH_12KV_2 Length=0.042316 units=km
New Line.1387087E$1387089E phases=2 Bus1=218893097.1.3 Bus2=218893135.1.3 LineCode=1/0_ACSR_2PH_12KV_2 Length=0.06919 units=km
New Line.ND236441013$FD08740 phases=3 Bus1=236441013.1.2.3 Bus2=236441007.1.2.3 LineCode=4_ACSR_3PH_12KV_3 Length=0.005509 units=km
New Line.4429599E$965387 phases=2 Bus1=41847789.1.2 Bus2=240995898.1.2 LineCode=6_CU_2PH_12KV_2 Length=0.041994 units=km
New Line.ND236441013$1339504E phases=3 Bus1=236441013.1.2.3 Bus2=41813380.1.2.3 LineCode=4_ACSR_3PH_12KV_3 Length=0.113355 units=km
New Line.PS0375$ND239074284 phases=3 Bus1=239074284.1.2.3 Bus2=41848404.1.2.3 LineCode=653_ACSR_3PH_12KV_3 Length=0.034233 units=km
New Line.668898E$657320E phases=2 Bus1=41812542.1.2 Bus2=41812517.1.2 LineCode=6_CU_2PH_12KV_2 Length=0.088515 units=km
New Line.881E$1257782E phases=2 Bus1=41812186.1.3 Bus2=41847413.1.3 LineCode=2_ACSR_2PH_12KV_2 Length=0.057251 units=km
New Line.610328E$ND41931742 phases=3 Bus1=41931742.1.2.3 Bus2=41848210.1.2.3 LineCode=2_ACSR_3PH_12KV_3 Length=0.02035 units=km
New Line.ND41931248$ND218892559 phases=3 Bus1=41931248.1.2.3 Bus2=218892559.1.2.3 LineCode=4/0_CU_3PH_12KV_3 Length=0.121734 units=km
New Line.657320E$2121033E phases=2 Bus1=41812517.1.2 Bus2=41812492.1.2 LineCode=6_CU_2PH_12KV_2 Length=0.188086 units=km
New Line.ND41931248$1029011E phases=3 Bus1=41931248.1.2.3 Bus2=41812600.1.2.3 LineCode=4_ACSR_3PH_12KV_3 Length=0.051464 units=km
New Line.BF34241$646259E phases=2 Bus1=41848176.1.2 Bus2=41814293.1.2 LineCode=6_CU_2PH_12KV_2 Length=0.042316 units=km
New Line.1387089E$1387090E phases=2 Bus1=218893135.1.3 Bus2=218893173.1.3 LineCode=1/0_ACSR_2PH_12KV_2 Length=0.037243 units=km
New Line.788229E$BF35261 phases=3 Bus1=219021503.1.2.3 Bus2=47360915.1.2.3 LineCode=1/0_ACSR_3PH_12KV_3 Length=0.022277 units=km
New Line.1387090E$1387091E phases=2 Bus1=218893173.1.3 Bus2=218893211.1.3 LineCode=1/0_ACSR_2PH_12KV_2 Length=0.041067 units=km
New Line.965387$ND41931554 phases=2 Bus1=240995897.1.2 Bus2=41931554.1.2 LineCode=6_CU_2PH_12KV_2 Length=0.008644 units=km
New Line.4773073E$788229E phases=3 Bus1=47360915.1.2.3 Bus2=47360940.1.2.3 LineCode=1/0_ACSR_3PH_12KV_3 Length=0.08511 units=km
New Line.ND41931554$4594858E phases=2 Bus1=41931554.1.2 Bus2=105682680.1.2 LineCode=4_ACSR_2PH_12KV_2 Length=0.109767 units=km
New Line.1387091E$1526861E phases=2 Bus1=218893211.1.3 Bus2=218893249.1.3 LineCode=1/0_ACSR_2PH_12KV_2 Length=0.027123 units=km
New Line.ND41931554$947199E phases=2 Bus1=41931554.1.2 Bus2=41812828.1.2 LineCode=6_CU_2PH_12KV_2 Length=0.152072 units=km
New Line.ND41931443$ND240627902 phases=3 Bus1=240627902.1.2.3 Bus2=41931443.1.2.3 LineCode=336_ACSR_3PH_12KV_3 Length=0.025649 units=km
New Line.400143E$4773073E phases=3 Bus1=47360940.1.2.3 Bus2=47360965.1.2.3 LineCode=1/0_ACSR_3PH_12KV_3 Length=0.04905 units=km
New Line.1526861E$1526859E phases=2 Bus1=218893249.1.3 Bus2=218893261.1.3 LineCode=1/0_ACSR_2PH_12KV_2 Length=0.077956 units=km
New Line.610328E$1794837E phases=3 Bus1=41848209.1.2.3 Bus2=104979800.1.2.3 LineCode=2_ACSR_3PH_12KV_3 Length=0.02035 units=km
New Line.ND218892559$BF35264 phases=2 Bus1=218892559.1.3 Bus2=218892690.1.3 LineCode=1/0_ACSR_2PH_12KV_2 Length=0.001884 units=km
New Line.646259E$4786242E phases=2 Bus1=41814293.1.2 Bus2=41812567.1.2 LineCode=6_CU_2PH_12KV_2 Length=0.135243 units=km
New Line.2121033E$650593E phases=2 Bus1=41812492.1.2 Bus2=41814243.1.2 LineCode=6_CU_2PH_12KV_2 Length=0.094159 units=km
New Line.ND218892559$ND41931249 phases=3 Bus1=218892559.1.2.3 Bus2=41931249.1.2.3 LineCode=4/0_CU_3PH_12KV_3 Length=0.216663 units=km
New Line.947199E$947197E phases=2 Bus1=41812828.1.2 Bus2=41812853.1.2 LineCode=6_CU_2PH_12KV_2 Length=0.096892 units=km
...

! Switches
New Line.5057776:GS1131-1 phases=3 Bus1=41846153.1.2.3 Bus2=41846179.1.2.3 switch=y r1=0.001 x1=0.001 r0=0.001 x0=0.001 Length=0.001 units=km enabled=false
New Line.5009985:BS1078-L phases=3 Bus1=196971197.1.2.3 Bus2=196971196.1.2.3 switch=y r1=0.001 x1=0.001 r0=0.001 x0=0.001 Length=0.001 units=km enabled=false
New Line.211823711 phases=1 Bus1=211823713.3 Bus2=211823714.3 switch=y r1=0.001 x1=0.001 r0=0.001 x0=0.001 Length=0.001 units=km
New Line.211823684 phases=1 Bus1=211823687.3 Bus2=211823686.3 switch=y r1=0.001 x1=0.001 r0=0.001 x0=0.001 Length=0.001 units=km
New Line.165358855$165358864 phases=3 Bus1=165358825.1.2.3 Bus2=165358819.1.2.3 switch=y r1=0.001 x1=0.001 r0=0.001 x0=0.001 Length=0.001 units=km
New Line.165358864$165358873 phases=3 Bus1=165358825.1.2.3 Bus2=165358831.1.2.3 switch=y r1=0.001 x1=0.001 r0=0.001 x0=0.001 Length=0.001 units=km
New Line.165358846$165358855 phases=3 Bus1=165358819.1.2.3 Bus2=165358813.1.2.3 switch=y r1=0.001 x1=0.001 r0=0.001 x0=0.001 Length=0.001 units=km
New Line.165358836$165358846 phases=3 Bus1=165358813.1.2.3 Bus2=165358812.1.2.3 switch=y r1=0.001 x1=0.001 r0=0.001 x0=0.001 Length=0.001 units=km
New Line.174837620$174837644 phases=3 Bus1=174837624.1.2.3 Bus2=174837648.1.2.3 switch=y r1=0.001 x1=0.001 r0=0.001 x0=0.001 Length=0.001 units=km
New Line.173320436$GS1130-2 phases=3 Bus1=173320410.1.2.3 Bus2=173320411.1.2.3 switch=y r1=0.001 x1=0.001 r0=0.001 x0=0.001 Length=0.001 units=km
New Line.174837644$174837628 phases=3 Bus1=174837648.1.2.3 Bus2=174837632.1.2.3 switch=y r1=0.001 x1=0.001 r0=0.001 x0=0.001 Length=0.001 units=km
New Line.GS1130-2$GS1130-3 phases=3 Bus1=173320411.1.2.3 Bus2=173320417.1.2.3 switch=y r1=0.001 x1=0.001 r0=0.001 x0=0.001 Length=0.001 units=km
New Line.174837628$174837636 phases=3 Bus1=174837632.1.2.3 Bus2=174837640.1.2.3 switch=y r1=0.001 x1=0.001 r0=0.001 x0=0.001 Length=0.001 units=km
New Line.GS1130-3$173320452 phases=3 Bus1=173320417.1.2.3 Bus2=173320423.1.2.3 switch=y r1=0.001 x1=0.001 r0=0.001 x0=0.001 Length=0.001 units=km
New Line.165469559 phases=3 Bus1=165469561.1.2.3 Bus2=165469562.1.2.3 switch=y r1=0.001 x1=0.001 r0=0.001 x0=0.001 Length=0.001 units=km
New Line.201450472 phases=3 Bus1=201450474.1.2.3 Bus2=201450475.1.2.3 switch=y r1=0.001 x1=0.001 r0=0.001 x0=0.001 Length=0.001 units=km
New Line.5057537:P5057537-1 phases=3 Bus1=41812203.1.2.3 Bus2=41812204.1.2.3 switch=y r1=0.001 x1=0.001 r0=0.001 x0=0.001 Length=0.001 units=km
New Line.90895608 phases=3 Bus1=90895610.1.2.3 Bus2=90895611.1.2.3 switch=y r1=0.001 x1=0.001 r0=0.001 x0=0.001 Length=0.001 units=km
New Line.205502333 phases=2 Bus1=205502335.1.2 Bus2=205502336.1.2 switch=y r1=0.001 x1=0.001 r0=0.001 x0=0.001 Length=0.001 units=km
New Line.236441104 phases=3 Bus1=236441106.1.2.3 Bus2=236441107.1.2.3 switch=y r1=0.001 x1=0.001 r0=0.001 x0=0.001 Length=0.001 units=km
New Line.41846193$41846201 phases=3 Bus1=41846166.1.2.3 Bus2=41846160.1.2.3 switch=y r1=0.001 x1=0.001 r0=0.001 x0=0.001 Length=0.001 units=km
New Line.41846201$GS1131-5 phases=3 Bus1=41846166.1.2.3 Bus2=41846172.1.2.3 switch=y r1=0.001 x1=0.001 r0=0.001 x0=0.001 Length=0.001 units=km
New Line.GS1131-2$41846193 phases=3 Bus1=41846160.1.2.3 Bus2=41846154.1.2.3 switch=y r1=0.001 x1=0.001 r0=0.001 x0=0.001 Length=0.001 units=km
New Line.GS1131-1$GS1131-2 phases=3 Bus1=41846154.1.2.3 Bus2=41846153.1.2.3 switch=y r1=0.001 x1=0.001 r0=0.001 x0=0.001 Length=0.001 units=km
New Line.205502306 phases=1 Bus1=205502309.1 Bus2=205502308.1 switch=y r1=0.001 x1=0.001 r0=0.001 x0=0.001 Length=0.001 units=km
New Line.41848220 phases=3 Bus1=41848222.1.2.3 Bus2=41848223.1.2.3 switch=y r1=0.001 x1=0.001 r0=0.001 x0=0.001 Length=0.001 units=km
New Line.90895637 phases=3 Bus1=90895640.1.2.3 Bus2=90895639.1.2.3 switch=y r1=0.001 x1=0.001 r0=0.001 x0=0.001 Length=0.001 units=km
New Line.90895664 phases=3 Bus1=90895666.1.2.3 Bus2=90895667.1.2.3 switch=y r1=0.001 x1=0.001 r0=0.001 x0=0.001 Length=0.001 units=km
New Line.190593495 phases=3 Bus1=190593497.1.2.3 Bus2=190593498.1.2.3 switch=y r1=0.001 x1=0.001 r0=0.001 x0=0.001 Length=0.001 units=km
New Line.GS1132-1$41846393 phases=3 Bus1=41846376.1.2.3 Bus2=41846375.1.2.3 switch=y r1=0.001 x1=0.001 r0=0.001 x0=0.001 Length=0.001 units=km
New Line.41846393$41846409 phases=3 Bus1=41846376.1.2.3 Bus2=41846382.1.2.3 switch=y r1=0.001 x1=0.001 r0=0.001 x0=0.001 Length=0.001 units=km
New Line.41846409$GS1132-4 phases=3 Bus1=41846382.1.2.3 Bus2=41846388.1.2.3 switch=y r1=0.001 x1=0.001 r0=0.001 x0=0.001 Length=0.001 units=km
New Line.4015927E:41814068 phases=2 Bus1=41814070.2.3 Bus2=41814071.2.3 switch=y r1=0.001 x1=0.001 r0=0.001 x0=0.001 Length=0.001 units=km
New Line.987232E:41812685 phases=3 Bus1=41812687.1.2.3 Bus2=41812688.1.2.3 switch=y r1=0.001 x1=0.001 r0=0.001 x0=0.001 Length=0.001 units=km
New Line.1071828E:218892859 phases=2 Bus1=218892861.1.3 Bus2=218892862.1.3 switch=y r1=0.001 x1=0.001 r0=0.001 x0=0.001 Length=0.001 units=km
New Line.965500E:41846050 phases=2 Bus1=41846052.2.3 Bus2=41846053.2.3 switch=y r1=0.001 x1=0.001 r0=0.001 x0=0.001 Length=0.001 units=km
New Line.1339642E:218892725 phases=2 Bus1=218892727.1.3 Bus2=218892728.1.3 switch=y r1=0.001 x1=0.001 r0=0.001 x0=0.001 Length=0.001 units=km
New Line.1071810E:218892821 phases=2 Bus1=218892823.1.3 Bus2=218892824.1.3 switch=y r1=0.001 x1=0.001 r0=0.001 x0=0.001 Length=0.001 units=km
New Line.1071829E:218892897 phases=2 Bus1=218892899.1.3 Bus2=218892900.1.3 switch=y r1=0.001 x1=0.001 r0=0.001 x0=0.001 Length=0.001 units=km
New Line.4604759E:41812710 phases=3 Bus1=41812712.1.2.3 Bus2=41812713.1.2.3 switch=y r1=0.001 x1=0.001 r0=0.001 x0=0.001 Length=0.001 units=km
New Line.965551E:41846025 phases=2 Bus1=41846027.2.3 Bus2=41846028.2.3 switch=y r1=0.001 x1=0.001 r0=0.001 x0=0.001 Length=0.001 units=km
New Line.965566E:41846100 phases=2 Bus1=41846102.2.3 Bus2=41846103.2.3 switch=y r1=0.001 x1=0.001 r0=0.001 x0=0.001 Length=0.001 units=km
New Line.1339643E:218892763 phases=2 Bus1=218892765.1.3 Bus2=218892766.1.3 switch=y r1=0.001 x1=0.001 r0=0.001 x0=0.001 Length=0.001 units=km
New Line.1515959E:218892792 phases=2 Bus1=218892794.1.3 Bus2=218892795.1.3 switch=y r1=0.001 x1=0.001 r0=0.001 x0=0.001 Length=0.001 units=km
New Line.358446E:218892935 phases=2 Bus1=218892937.1.3 Bus2=218892938.1.3 switch=y r1=0.001 x1=0.001 r0=0.001 x0=0.001 Length=0.001 units=km
New Line.965556E:41846000 phases=2 Bus1=41846002.2.3 Bus2=41846003.2.3 switch=y r1=0.001 x1=0.001 r0=0.001 x0=0.001 Length=0.001 units=km
New Line.965568E:41846075 phases=2 Bus1=41846077.2.3 Bus2=41846078.2.3 switch=y r1=0.001 x1=0.001 r0=0.001 x0=0.001 Length=0.001 units=km
New Line.569659E:218892973 phases=2 Bus1=218892975.1.3 Bus2=218892976.1.3 switch=y r1=0.001 x1=0.001 r0=0.001 x0=0.001 Length=0.001 units=km
New Line.2133098E:41846637 phases=3 Bus1=41846639.1.2.3 Bus2=41846640.1.2.3 switch=y r1=0.001 x1=0.001 r0=0.001 x0=0.001 Length=0.001 units=km
New Line.2026903E:41812735 phases=3 Bus1=41812737.1.2.3 Bus2=41812738.1.2.3 switch=y r1=0.001 x1=0.001 r0=0.001 x0=0.001 Length=0.001 units=km
New Line.1377844E:41845925 phases=2 Bus1=41845927.2.3 Bus2=41845928.2.3 switch=y r1=0.001 x1=0.001 r0=0.001 x0=0.001 Length=0.001 units=km
New Line.965561E:41845975 phases=2 Bus1=41845977.2.3 Bus2=41845978.2.3 switch=y r1=0.001 x1=0.001 r0=0.001 x0=0.001 Length=0.001 units=km
New Line.564115E:218893011 phases=2 Bus1=218893013.1.3 Bus2=218893014.1.3 switch=y r1=0.001 x1=0.001 r0=0.001 x0=0.001 Length=0.001 units=km
New Line.965684E:41812760 phases=3 Bus1=41812762.1.2.3 Bus2=41812763.1.2.3 switch=y r1=0.001 x1=0.001 r0=0.001 x0=0.001 Length=0.001 units=km
New Line.965563E:41845950 phases=2 Bus1=41845952.2.3 Bus2=41845953.2.3 switch=y r1=0.001 x1=0.001 r0=0.001 x0=0.001 Length=0.001 units=km
New Line.1669189E:89811321 phases=3 Bus1=89811323.1.2.3 Bus2=89811324.1.2.3 switch=y r1=0.001 x1=0.001 r0=0.001 x0=0.001 Length=0.001 units=km
New Line.965390E:41812785 phases=3 Bus1=41812787.1.2.3 Bus2=41812788.1.2.3 switch=y r1=0.001 x1=0.001 r0=0.001 x0=0.001 Length=0.001 units=km
New Line.1922030E:41847101 phases=3 Bus1=41847103.1.2.3 Bus2=41847104.1.2.3 switch=y r1=0.001 x1=0.001 r0=0.001 x0=0.001 Length=0.001 units=km
New Line.4754915E:196224496 phases=3 Bus1=196224498.1.2.3 Bus2=196224499.1.2.3 switch=y r1=0.001 x1=0.001 r0=0.001 x0=0.001 Length=0.001 units=km
New Line.1387086E:218893040 phases=2 Bus1=218893042.1.3 Bus2=218893043.1.3 switch=y r1=0.001 x1=0.001 r0=0.001 x0=0.001 Length=0.001 units=km
New Line.1339505E:41813337 phases=3 Bus1=41813339.1.2.3 Bus2=41813340.1.2.3 switch=y r1=0.001 x1=0.001 r0=0.001 x0=0.001 Length=0.001 units=km
New Line.705936E:41846662 phases=3 Bus1=41846664.1.2.3 Bus2=41846665.1.2.3 switch=y r1=0.001 x1=0.001 r0=0.001 x0=0.001 Length=0.001 units=km
New Line.668898E:41812524 phases=2 Bus1=41812526.1.2 Bus2=41812527.1.2 switch=y r1=0.001 x1=0.001 r0=0.001 x0=0.001 Length=0.001 units=km
New Line.1387087E:218893078 phases=2 Bus1=218893080.1.3 Bus2=218893081.1.3 switch=y r1=0.001 x1=0.001 r0=0.001 x0=0.001 Length=0.001 units=km
New Line.2216978E:41846687 phases=3 Bus1=41846689.1.2.3 Bus2=41846690.1.2.3 switch=y r1=0.001 x1=0.001 r0=0.001 x0=0.001 Length=0.001 units=km
New Line.4429599E:41847771 phases=2 Bus1=41847773.1.2 Bus2=41847774.1.2 switch=y r1=0.001 x1=0.001 r0=0.001 x0=0.001 Length=0.001 units=km
New Line.1387089E:218893116 phases=2 Bus1=218893118.1.3 Bus2=218893119.1.3 switch=y r1=0.001 x1=0.001 r0=0.001 x0=0.001 Length=0.001 units=km
New Line.1339504E:41813362 phases=3 Bus1=41813364.1.2.3 Bus2=41813365.1.2.3 switch=y r1=0.001 x1=0.001 r0=0.001 x0=0.001 Length=0.001 units=km
New Line.1387090E:218893154 phases=2 Bus1=218893156.1.3 Bus2=218893157.1.3 switch=y r1=0.001 x1=0.001 r0=0.001 x0=0.001 Length=0.001 units=km
New Line.788229E:47360897 phases=3 Bus1=47360899.1.2.3 Bus2=47360900.1.2.3 switch=y r1=0.001 x1=0.001 r0=0.001 x0=0.001 Length=0.001 units=km
New Line.1387091E:218893192 phases=2 Bus1=218893194.1.3 Bus2=218893195.1.3 switch=y r1=0.001 x1=0.001 r0=0.001 x0=0.001 Length=0.001 units=km
New Line.657320E:41812499 phases=2 Bus1=41812501.1.2 Bus2=41812502.1.2 switch=y r1=0.001 x1=0.001 r0=0.001 x0=0.001 Length=0.001 units=km
New Line.1257782E:41847395 phases=2 Bus1=41847397.1.3 Bus2=41847398.1.3 switch=y r1=0.001 x1=0.001 r0=0.001 x0=0.001 Length=0.001 units=km
New Line.4773073E:47360922 phases=3 Bus1=47360924.1.2.3 Bus2=47360925.1.2.3 switch=y r1=0.001 x1=0.001 r0=0.001 x0=0.001 Length=0.001 units=km
New Line.4594858E:105682661 phases=2 Bus1=105682663.1.2 Bus2=105682664.1.2 switch=y r1=0.001 x1=0.001 r0=0.001 x0=0.001 Length=0.001 units=km
New Line.1526861E:218893230 phases=2 Bus1=218893232.1.3 Bus2=218893233.1.3 switch=y r1=0.001 x1=0.001 r0=0.001 x0=0.001 Length=0.001 units=km
New Line.947199E:41812810 phases=2 Bus1=41812812.1.2 Bus2=41812813.1.2 switch=y r1=0.001 x1=0.001 r0=0.001 x0=0.001 Length=0.001 units=km
New Line.400143E:47360947 phases=3 Bus1=47360949.1.2.3 Bus2=47360950.1.2.3 switch=y r1=0.001 x1=0.001 r0=0.001 x0=0.001 Length=0.001 units=km
New Line.2121033E:41812474 phases=2 Bus1=41812476.1.2 Bus2=41812477.1.2 switch=y r1=0.001 x1=0.001 r0=0.001 x0=0.001 Length=0.001 units=km
New Line.646259E:41814275 phases=2 Bus1=41814277.1.2 Bus2=41814278.1.2 switch=y r1=0.001 x1=0.001 r0=0.001 x0=0.001 Length=0.001 units=km
New Line.4786242E:41812549 phases=2 Bus1=41812551.1.2 Bus2=41812552.1.2 switch=y r1=0.001 x1=0.001 r0=0.001 x0=0.001 Length=0.001 units=km
New Line.650593E:41814225 phases=2 Bus1=41814227.1.2 Bus2=41814228.1.2 switch=y r1=0.001 x1=0.001 r0=0.001 x0=0.001 Length=0.001 units=km
New Line.4561396E:143781233 phases=2 Bus1=143781235.1.2 Bus2=143781236.1.2 switch=y r1=0.001 x1=0.001 r0=0.001 x0=0.001 Length=0.001 units=km
New Line.646262E:41812574 phases=2 Bus1=41812576.1.2 Bus2=41812577.1.2 switch=y r1=0.001 x1=0.001 r0=0.001 x0=0.001 Length=0.001 units=km
New Line.1526859E:218893268 phases=2 Bus1=218893270.1.3 Bus2=218893271.1.3 switch=y r1=0.001 x1=0.001 r0=0.001 x0=0.001 Length=0.001 units=km
New Line.947197E:41812835 phases=2 Bus1=41812837.1.2 Bus2=41812838.1.2 switch=y r1=0.001 x1=0.001 r0=0.001 x0=0.001 Length=0.001 units=km
New Line.4658236E:47360972 phases=3 Bus1=47360974.1.2.3 Bus2=47360975.1.2.3 switch=y r1=0.001 x1=0.001 r0=0.001 x0=0.001 Length=0.001 units=km
New Line.947195E:41812860 phases=2 Bus1=41812862.1.2 Bus2=41812863.1.2 switch=y r1=0.001 x1=0.001 r0=0.001 x0=0.001 Length=0.001 units=km
New Line.4117027E:47360997 phases=3 Bus1=47360999.1.2.3 Bus2=47361000.1.2.3 switch=y r1=0.001 x1=0.001 r0=0.001 x0=0.001 Length=0.001 units=km
New Line.2237420E:47361022 phases=3 Bus1=47361024.1.2.3 Bus2=47361025.1.2.3 switch=y r1=0.001 x1=0.001 r0=0.001 x0=0.001 Length=0.001 units=km
New Line.890605E:218501589 phases=3 Bus1=218501591.1.2.3 Bus2=218501592.1.2.3 switch=y r1=0.001 x1=0.001 r0=0.001 x0=0.001 Length=0.001 units=km
New Line.620553E:47360872 phases=3 Bus1=47360874.1.2.3 Bus2=47360875.1.2.3 switch=y r1=0.001 x1=0.001 r0=0.001 x0=0.001 Length=0.001 units=km
New Line.646263E:41814250 phases=2 Bus1=41814252.1.2 Bus2=41814253.1.2 switch=y r1=0.001 x1=0.001 r0=0.001 x0=0.001 Length=0.001 units=km
New Line.646264E:214607051 phases=2 Bus1=214607053.1.2 Bus2=214607054.1.2 switch=y r1=0.001 x1=0.001 r0=0.001 x0=0.001 Length=0.001 units=km
New Line.1071826E:218893357 phases=2 Bus1=218893359.1.3 Bus2=218893360.1.3 switch=y r1=0.001 x1=0.001 r0=0.001 x0=0.001 Length=0.001 units=km
New Line.987230E:41812660 phases=3 Bus1=41812662.1.2.3 Bus2=41812663.1.2.3 switch=y r1=0.001 x1=0.001 r0=0.001 x0=0.001 Length=0.001 units=km
New Line.1019354E:PS0316 phases=3 Bus1=41847911.1.2.3 Bus2=41847910.1.2.3 switch=y r1=0.001 x1=0.001 r0=0.001 x0=0.001 Length=0.001 units=km
New Line.5057409:GS1121-1 phases=3 Bus1=41770708.1.2.3 Bus2=41770694.1.2.3 switch=y r1=0.001 x1=0.001 r0=0.001 x0=0.001 Length=0.001 units=km enabled=false
New Line.610337E:PS0124 phases=3 Bus1=41848148.1.2.3 Bus2=41848147.1.2.3 switch=y r1=0.001 x1=0.001 r0=0.001 x0=0.001 Length=0.001 units=km
New Line.5009976:J976-1 phases=3 Bus1=174837623.1.2.3 Bus2=174837624.1.2.3 switch=y r1=0.001 x1=0.001 r0=0.001 x0=0.001 Length=0.001 units=km
New Line.5057769:GS1130-1 phases=3 Bus1=173320438.1.2.3 Bus2=173320410.1.2.3 switch=y r1=0.001 x1=0.001 r0=0.001 x0=0.001 Length=0.001 units=km
New Line.5009976:J976-2 phases=3 Bus1=174837648.1.2.3 Bus2=174837647.1.2.3 switch=y r1=0.001 x1=0.001 r0=0.001 x0=0.001 Length=0.001 units=km
New Line.610323E:RCS0482 phases=3 Bus1=41848060.1.2.3 Bus2=41848059.1.2.3 switch=y r1=0.001 x1=0.001 r0=0.001 x0=0.001 Length=0.001 units=km
New Line.5057769:GS1130-2 phases=3 Bus1=173320411.1.2.3 Bus2=173320430.1.2.3 switch=y r1=0.001 x1=0.001 r0=0.001 x0=0.001 Length=0.001 units=km
New Line.5009976:J976-3 phases=3 Bus1=174837632.1.2.3 Bus2=174837631.1.2.3 switch=y r1=0.001 x1=0.001 r0=0.001 x0=0.001 Length=0.001 units=km
New Line.5057769:GS1130-3 phases=3 Bus1=173320417.1.2.3 Bus2=173320446.1.2.3 switch=y r1=0.001 x1=0.001 r0=0.001 x0=0.001 Length=0.001 units=km
New Line.5009976:J976-4 phases=3 Bus1=174837640.1.2.3 Bus2=174837639.1.2.3 switch=y r1=0.001 x1=0.001 r0=0.001 x0=0.001 Length=0.001 units=km
New Line.5057769:GS1130-4 phases=3 Bus1=173320423.1.2.3 Bus2=173320454.1.2.3 switch=y r1=0.001 x1=0.001 r0=0.001 x0=0.001 Length=0.001 units=km
New Line.1654386E:RCS0449 phases=3 Bus1=41848284.1.2.3 Bus2=41848285.1.2.3 switch=y r1=0.001 x1=0.001 r0=0.001 x0=0.001 Length=0.001 units=km enabled=false
New Line.5057776:GS1131-4 phases=3 Bus1=41846203.1.2.3 Bus2=41846166.1.2.3 switch=y r1=0.001 x1=0.001 r0=0.001 x0=0.001 Length=0.001 units=km
New Line.1669193E:PS0375 phases=3 Bus1=41848404.1.2.3 Bus2=41848403.1.2.3 switch=y r1=0.001 x1=0.001 r0=0.001 x0=0.001 Length=0.001 units=km
New Line.5057776:GS1131-3 phases=3 Bus1=41846160.1.2.3 Bus2=41846195.1.2.3 switch=y r1=0.001 x1=0.001 r0=0.001 x0=0.001 Length=0.001 units=km
New Line.5057776:GS1131-5 phases=3 Bus1=41846172.1.2.3 Bus2=41846211.1.2.3 switch=y r1=0.001 x1=0.001 r0=0.001 x0=0.001 Length=0.001 units=km
New Line.4386654E:PS2011 phases=3 Bus1=41849276.1.2.3 Bus2=41849277.1.2.3 switch=y r1=0.001 x1=0.001 r0=0.001 x0=0.001 Length=0.001 units=km enabled=false
New Line.5057776:GS1131-2 phases=3 Bus1=41846154.1.2.3 Bus2=41846187.1.2.3 switch=y r1=0.001 x1=0.001 r0=0.001 x0=0.001 Length=0.001 units=km
New Line.610335E:PS0340 phases=3 Bus1=41848113.1.2.3 Bus2=41848114.1.2.3 switch=y r1=0.001 x1=0.001 r0=0.001 x0=0.001 Length=0.001 units=km
New Line.395668E:PS0001 phases=3 Bus1=41848510.1.2.3 Bus2=41848511.1.2.3 switch=y r1=0.001 x1=0.001 r0=0.001 x0=0.001 Length=0.001 units=km
New Line.5010253:B5010253-2 phases=1 Bus1=41769858.2 Bus2=41769850.2 switch=y r1=0.001 x1=0.001 r0=0.001 x0=0.001 Length=0.001 units=km
New Line.5010253:B5010253-1 phases=1 Bus1=41769850.2 Bus2=41769849.2 switch=y r1=0.001 x1=0.001 r0=0.001 x0=0.001 Length=0.001 units=km
New Line.5057347:B5057347-1 phases=1 Bus1=41769921.2 Bus2=41769922.2 switch=y r1=0.001 x1=0.001 r0=0.001 x0=0.001 Length=0.001 units=km
New Line.1354590E:1354590EI phases=3 Bus1=240335373.1.2.3 Bus2=240335374.1.2.3 switch=y r1=0.001 x1=0.001 r0=0.001 x0=0.001 Length=0.001 units=km
New Line.5057347:B5057347-2 phases=1 Bus1=41769922.2 Bus2=41769930.2 switch=y r1=0.001 x1=0.001 r0=0.001 x0=0.001 Length=0.001 units=km
New Line.5010254:B5010254-2 phases=1 Bus1=41769786.2 Bus2=41769778.2 switch=y r1=0.001 x1=0.001 r0=0.001 x0=0.001 Length=0.001 units=km
New Line.5010254:B5010254-1 phases=1 Bus1=41769778.2 Bus2=41769777.2 switch=y r1=0.001 x1=0.001 r0=0.001 x0=0.001 Length=0.001 units=km
New Line.5057348:B5057348-1 phases=1 Bus1=41769993.2 Bus2=41769994.2 switch=y r1=0.001 x1=0.001 r0=0.001 x0=0.001 Length=0.001 units=km
New Line.5010133:B5010133-1 phases=1 Bus1=41770523.2 Bus2=41770524.2 switch=y r1=0.001 x1=0.001 r0=0.001 x0=0.001 Length=0.001 units=km
New Line.5057348:B5057348-2 phases=1 Bus1=41769994.2 Bus2=41770002.2 switch=y r1=0.001 x1=0.001 r0=0.001 x0=0.001 Length=0.001 units=km
New Line.5010133:B5010133-2 phases=1 Bus1=41770524.2 Bus2=41770532.2 switch=y r1=0.001 x1=0.001 r0=0.001 x0=0.001 Length=0.001 units=km
New Line.5010255:B5010255-2 phases=1 Bus1=41769642.2 Bus2=41769634.2 switch=y r1=0.001 x1=0.001 r0=0.001 x0=0.001 Length=0.001 units=km
New Line.5010137:P5010137-2 phases=1 Bus1=41770244.3 Bus2=41770236.3 switch=y r1=0.001 x1=0.001 r0=0.001 x0=0.001 Length=0.001 units=km
New Line.5057349:B5057349-1 phases=1 Bus1=41769705.2 Bus2=41769706.2 switch=y r1=0.001 x1=0.001 r0=0.001 x0=0.001 Length=0.001 units=km
New Line.5010137:P5010137-1 phases=1 Bus1=41770236.3 Bus2=41770235.3 switch=y r1=0.001 x1=0.001 r0=0.001 x0=0.001 Length=0.001 units=km
New Line.5010134:B5010134-1 phases=1 Bus1=41770451.2 Bus2=41770452.2 switch=y r1=0.001 x1=0.001 r0=0.001 x0=0.001 Length=0.001 units=km
New Line.1137292E:292E phases=3 Bus1=41769557.1.2.3 Bus2=41769556.1.2.3 switch=y r1=0.001 x1=0.001 r0=0.001 x0=0.001 Length=0.001 units=km
New Line.1019367E:9367E phases=3 Bus1=41814837.1.2.3 Bus2=41814838.1.2.3 switch=y r1=0.001 x1=0.001 r0=0.001 x0=0.001 Length=0.001 units=km
New Line.1019368E:9368E phases=3 Bus1=41769616.1.2.3 Bus2=41769617.1.2.3 switch=y r1=0.001 x1=0.001 r0=0.001 x0=0.001 Length=0.001 units=km
New Line.1669153E:153E phases=3 Bus1=41770061.1.2.3 Bus2=41770062.1.2.3 switch=y r1=0.001 x1=0.001 r0=0.001 x0=0.001 Length=0.001 units=km
New Line.1669153E:9153E phases=3 Bus1=41770074.1.2.3 Bus2=41770075.1.2.3 switch=y r1=0.001 x1=0.001 r0=0.001 x0=0.001 Length=0.001 units=km
New Line.929926E:926E phases=3 Bus1=41770663.1.2.3 Bus2=41770664.1.2.3 switch=y r1=0.001 x1=0.001 r0=0.001 x0=0.001 Length=0.001 units=km
New Line.1669165E:1669165E phases=3 Bus1=41769586.1.2.3 Bus2=41769587.1.2.3 switch=y r1=0.001 x1=0.001 r0=0.001 x0=0.001 Length=0.001 units=km
New Line.965565E:965565E phases=2 Bus1=41846127.2.3 Bus2=41846126.2.3 switch=y r1=0.001 x1=0.001 r0=0.001 x0=0.001 Length=0.001 units=km
New Line.1957115E:1957115E phases=3 Bus1=41811788.1.2.3 Bus2=41811787.1.2.3 switch=y r1=0.001 x1=0.001 r0=0.001 x0=0.001 Length=0.001 units=km
New Line.1463462E:1463462E phases=3 Bus1=41846554.1.2.3 Bus2=41846553.1.2.3 switch=y r1=0.001 x1=0.001 r0=0.001 x0=0.001 Length=0.001 units=km
New Line.610338E:610338E phases=3 Bus1=41814393.1.2.3 Bus2=41814394.1.2.3 switch=y r1=0.001 x1=0.001 r0=0.001 x0=0.001 Length=0.001 units=km
New Line.1580471E:FD35796 phases=3 Bus1=41846713.1.2.3 Bus2=41846714.1.2.3 switch=y r1=0.001 x1=0.001 r0=0.001 x0=0.001 Length=0.001 units=km
New Line.4406602E:FD35346 phases=3 Bus1=90895428.1.2.3 Bus2=90895446.1.2.3 switch=y r1=0.001 x1=0.001 r0=0.001 x0=0.001 Length=0.001 units=km
New Line.1064863E:1064863E phases=3 Bus1=41814694.1.2.3 Bus2=41814695.1.2.3 switch=y r1=0.001 x1=0.001 r0=0.001 x0=0.001 Length=0.001 units=km
New Line.1257881E:881E phases=3 Bus1=41812187.1.2.3 Bus2=41812186.1.2.3 switch=y r1=0.001 x1=0.001 r0=0.001 x0=0.001 Length=0.001 units=km
New Line.1339505E:FD08740 phases=3 Bus1=236441007.1.2.3 Bus2=236441024.1.2.3 switch=y r1=0.001 x1=0.001 r0=0.001 x0=0.001 Length=0.001 units=km
New Line.1029011E:1029011E phases=3 Bus1=41812600.1.2.3 Bus2=41812601.1.2.3 switch=y r1=0.001 x1=0.001 r0=0.001 x0=0.001 Length=0.001 units=km
New Line.1794837E:1794837E phases=3 Bus1=104979800.1.2.3 Bus2=104979801.1.2.3 switch=y r1=0.001 x1=0.001 r0=0.001 x0=0.001 Length=0.001 units=km
New Line.4019013E:PH013E phases=3 Bus1=99950884.1.2.3 Bus2=99950885.1.2.3 switch=y r1=0.001 x1=0.001 r0=0.001 x0=0.001 Length=0.001 units=km
New Line.4796555E:555E phases=3 Bus1=41814642.1.2.3 Bus2=41814643.1.2.3 switch=y r1=0.001 x1=0.001 r0=0.001 x0=0.001 Length=0.001 units=km
New Line.965499E:965499E phases=2 Bus1=41846140.2.3 Bus2=41846139.2.3 switch=y r1=0.001 x1=0.001 r0=0.001 x0=0.001 Length=0.001 units=km
New Line.5010134:B5010134-2 phases=1 Bus1=41770452.2 Bus2=41770460.2 switch=y r1=0.001 x1=0.001 r0=0.001 x0=0.001 Length=0.001 units=km
New Line.5009985:GS0661-4 phases=3 Bus1=165358866.1.2.3 Bus2=165358825.1.2.3 switch=y r1=0.001 x1=0.001 r0=0.001 x0=0.001 Length=0.001 units=km
New Line.5010135:B5010135-1 phases=1 Bus1=41770595.2 Bus2=41770596.2 switch=y r1=0.001 x1=0.001 r0=0.001 x0=0.001 Length=0.001 units=km
New Line.5057790:GS1132-4 phases=3 Bus1=41846388.1.2.3 Bus2=41846419.1.2.3 switch=y r1=0.001 x1=0.001 r0=0.001 x0=0.001 Length=0.001 units=km
New Line.5339087:P5339087-1 phases=1 Bus1=41845665.3 Bus2=41845664.3 switch=y r1=0.001 x1=0.001 r0=0.001 x0=0.001 Length=0.001 units=km
New Line.5009985:GS0661-3 phases=3 Bus1=165358819.1.2.3 Bus2=165358857.1.2.3 switch=y r1=0.001 x1=0.001 r0=0.001 x0=0.001 Length=0.001 units=km
New Line.5009985:GS0661-5 phases=3 Bus1=165358831.1.2.3 Bus2=165358875.1.2.3 switch=y r1=0.001 x1=0.001 r0=0.001 x0=0.001 Length=0.001 units=km
New Line.5010136:P5010136-2 phases=1 Bus1=41770316.3 Bus2=41770308.3 switch=y r1=0.001 x1=0.001 r0=0.001 x0=0.001 Length=0.001 units=km
New Line.5010135:B5010135-2 phases=1 Bus1=41770596.2 Bus2=41770604.2 switch=y r1=0.001 x1=0.001 r0=0.001 x0=0.001 Length=0.001 units=km
New Line.5009985:GS0661-2 phases=3 Bus1=165358813.1.2.3 Bus2=165358848.1.2.3 switch=y r1=0.001 x1=0.001 r0=0.001 x0=0.001 Length=0.001 units=km
New Line.5010136:P5010136-1 phases=1 Bus1=41770308.3 Bus2=41770307.3 switch=y r1=0.001 x1=0.001 r0=0.001 x0=0.001 Length=0.001 units=km
New Line.5009985:GS0661-1 phases=3 Bus1=165358812.1.2.3 Bus2=165358839.1.2.3 switch=y r1=0.001 x1=0.001 r0=0.001 x0=0.001 Length=0.001 units=km
New Line.5009985:BS1078-T phases=3 Bus1=196971204.1.2.3 Bus2=196971197.1.2.3 switch=y r1=0.001 x1=0.001 r0=0.001 x0=0.001 Length=0.001 units=km
New Line.5010250:B5010250-2 phases=1 Bus1=41770172.2 Bus2=41770164.2 switch=y r1=0.001 x1=0.001 r0=0.001 x0=0.001 Length=0.001 units=km
New Line.5009985:BS1078-R phases=3 Bus1=196971197.1.2.3 Bus2=196971213.1.2.3 switch=y r1=0.001 x1=0.001 r0=0.001 x0=0.001 Length=0.001 units=km
New Line.5010251:P5010251-2 phases=1 Bus1=41770388.3 Bus2=41770380.3 switch=y r1=0.001 x1=0.001 r0=0.001 x0=0.001 Length=0.001 units=km
New Line.5010251:P5010251-1 phases=1 Bus1=41770380.3 Bus2=41770379.3 switch=y r1=0.001 x1=0.001 r0=0.001 x0=0.001 Length=0.001 units=km
New Line.5057536:P5057536-1 phases=3 Bus1=153191552.1.2.3 Bus2=153191553.1.2.3 switch=y r1=0.001 x1=0.001 r0=0.001 x0=0.001 Length=0.001 units=km
New Line.5161953:B5161953-2 phases=1 Bus1=41845036.1 Bus2=41814970.1 switch=y r1=0.001 x1=0.001 r0=0.001 x0=0.001 Length=0.001 units=km
New Line.5193595:B5193595-1 phases=1 Bus1=41846820.2 Bus2=41846821.2 switch=y r1=0.001 x1=0.001 r0=0.001 x0=0.001 Length=0.001 units=km
New Line.5339088:P5339088-2 phases=1 Bus1=41845601.3 Bus2=41845593.3 switch=y r1=0.001 x1=0.001 r0=0.001 x0=0.001 Length=0.001 units=km
New Line.5056607:B5056607-2 phases=2 Bus1=41846757.1.2 Bus2=41846749.1.2 switch=y r1=0.001 x1=0.001 r0=0.001 x0=0.001 Length=0.001 units=km
New Line.5010252:B5010252-1 phases=1 Bus1=41770091.3 Bus2=41770092.3 switch=y r1=0.001 x1=0.001 r0=0.001 x0=0.001 Length=0.001 units=km
New Line.5647839:P5647839-1 phases=3 Bus1=174837784.1.2.3 Bus2=174837785.1.2.3 switch=y r1=0.001 x1=0.001 r0=0.001 x0=0.001 Length=0.001 units=km
New Line.5347684:P5347684-1 phases=3 Bus1=200044610.1.2.3 Bus2=200044611.1.2.3 switch=y r1=0.001 x1=0.001 r0=0.001 x0=0.001 Length=0.001 units=km
New Line.5009784:B5009784-2 phases=2 Bus1=41846579.1.3 Bus2=41846571.1.3 switch=y r1=0.001 x1=0.001 r0=0.001 x0=0.001 Length=0.001 units=km
New Line.5057541:P5057541-1 phases=3 Bus1=41812299.1.2.3 Bus2=41812300.1.2.3 switch=y r1=0.001 x1=0.001 r0=0.001 x0=0.001 Length=0.001 units=km
New Line.5057775:B5057775-2 phases=2 Bus1=41845350.1.2 Bus2=41845342.1.2 switch=y r1=0.001 x1=0.001 r0=0.001 x0=0.001 Length=0.001 units=km
New Line.5397587:P5397587-1 phases=3 Bus1=151617747.1.2.3 Bus2=151617748.1.2.3 switch=y r1=0.001 x1=0.001 r0=0.001 x0=0.001 Length=0.001 units=km
New Line.5057770:B5057770-2 phases=2 Bus1=41845230.1.2 Bus2=41845222.1.2 switch=y r1=0.001 x1=0.001 r0=0.001 x0=0.001 Length=0.001 units=km
New Line.5601525:P5601525-1 phases=3 Bus1=158418548.1.2.3 Bus2=158418549.1.2.3 switch=y r1=0.001 x1=0.001 r0=0.001 x0=0.001 Length=0.001 units=km
New Line.5528280:P5528280-A phases=3 Bus1=152693024.1.2.3 Bus2=152693025.1.2.3 switch=y r1=0.001 x1=0.001 r0=0.001 x0=0.001 Length=0.001 units=km
New Line.5528280:P5528280-T phases=3 Bus1=152693025.1.2.3 Bus2=152693033.1.2.3 switch=y r1=0.001 x1=0.001 r0=0.001 x0=0.001 Length=0.001 units=km
New Line.5528280:P5528280-B phases=3 Bus1=152693025.1.2.3 Bus2=152693042.1.2.3 switch=y r1=0.001 x1=0.001 r0=0.001 x0=0.001 Length=0.001 units=km
New Line.5056603:P5056603-1 phases=3 Bus1=41845293.1.2.3 Bus2=41845294.1.2.3 switch=y r1=0.001 x1=0.001 r0=0.001 x0=0.001 Length=0.001 units=km
New Line.5754084:P5754084-1 phases=3 Bus1=236441060.1.2.3 Bus2=236441061.1.2.3 switch=y r1=0.001 x1=0.001 r0=0.001 x0=0.001 Length=0.001 units=km
New Line.5057790:GS1132-2 phases=3 Bus1=41846395.1.2.3 Bus2=41846376.1.2.3 switch=y r1=0.001 x1=0.001 r0=0.001 x0=0.001 Length=0.001 units=km
New Line.5576077:P5576077-1 phases=3 Bus1=104979829.1.2.3 Bus2=104979830.1.2.3 switch=y r1=0.001 x1=0.001 r0=0.001 x0=0.001 Length=0.001 units=km
New Line.5528281:P5528281-1 phases=3 Bus1=90895464.1.2.3 Bus2=90895465.1.2.3 switch=y r1=0.001 x1=0.001 r0=0.001 x0=0.001 Length=0.001 units=km
New Line.5555300:P5555300-1 phases=3 Bus1=152156984.1.2.3 Bus2=152156985.1.2.3 switch=y r1=0.001 x1=0.001 r0=0.001 x0=0.001 Length=0.001 units=km
New Line.5056606:B5056606-2 phases=2 Bus1=41845795.1.3 Bus2=41845787.1.3 switch=y r1=0.001 x1=0.001 r0=0.001 x0=0.001 Length=0.001 units=km
New Line.5397788:P5397788-1 phases=3 Bus1=41812617.1.2.3 Bus2=41812618.1.2.3 switch=y r1=0.001 x1=0.001 r0=0.001 x0=0.001 Length=0.001 units=km
New Line.5161954:B5161954-2 phases=1 Bus1=41845108.1 Bus2=41845100.1 switch=y r1=0.001 x1=0.001 r0=0.001 x0=0.001 Length=0.001 units=km
New Line.5057778:B5057778-2 phases=2 Bus1=41845867.2.3 Bus2=41845859.2.3 switch=y r1=0.001 x1=0.001 r0=0.001 x0=0.001 Length=0.001 units=km
New Line.5057790:GS1132-1 phases=3 Bus1=41846375.1.2.3 Bus2=41846403.1.2.3 switch=y r1=0.001 x1=0.001 r0=0.001 x0=0.001 Length=0.001 units=km
New Line.5057790:GS1132-3 phases=3 Bus1=41846382.1.2.3 Bus2=41846411.1.2.3 switch=y r1=0.001 x1=0.001 r0=0.001 x0=0.001 Length=0.001 units=km
...

! Loads
New Load.5010253 Bus1=-99999941769850.2.0 phases=1 kV=0.138564 kW=0 kvar=0 model=1
New Load.5057790_0 Bus1=-999999154336007.1.2 phases=1 kV=0.069282 kW=0 kvar=0 model=1
New Load.5057790_1 Bus1=-999999154336007.2.3 phases=1 kV=0.069282 kW=0 kvar=0 model=1
New Load.5057790_2 Bus1=-999999154336007.3.1 phases=1 kV=0.069282 kW=0 kvar=0 model=1
New Load.987232E_0 Bus1=-99999941812688.2.0 phases=1 kV=0.069282 kW=0 kvar=0 model=1
New Load.987232E_1 Bus1=-99999941812688.3.0 phases=1 kV=0.069282 kW=0 kvar=0 model=1
New Load.668898E_0 Bus1=-99999941812527.3.0 phases=1 kV=0.069282 kW=0 kvar=0 model=1
New Load.668898E_1 Bus1=-99999941812527.1.0 phases=1 kV=0.069282 kW=0 kvar=0 model=1
New Load.5601525_0 Bus1=-999999158418549.1.0 phases=1 kV=0.159926 kW=0 kvar=0 model=1
New Load.5601525_1 Bus1=-999999158418549.2.0 phases=1 kV=0.159926 kW=0 kvar=0 model=1
...